  Page 1                                    Wed May 24 19:51:05 2023

  ******************************************************************
  *                           E P A N E T                          *
  *                   Hydraulic and Water Quality                  *
  *                   Analysis for Pipe Networks                   *
  *                         Version 2.00.12                        *
  ******************************************************************
  
  Analysis begun Wed May 24 19:51:05 2023

  WARNING: Negative pressures at 0:00:00 hrs.
  WARNING: Pump F1 closed because cannot deliver head at 0:00:00 hrs.
  WARNING: Pump P1 open but exceeds maximum flow at 0:00:00 hrs.
  
  WARNING: Pump F1 closed because cannot deliver head at 1:00:00 hrs.
  WARNING: Pump K1 closed because cannot deliver head at 1:00:00 hrs.
  
  WARNING: Negative pressures at 2:00:00 hrs.
  WARNING: Pump F1 closed because cannot deliver head at 2:00:00 hrs.
  WARNING: Pump P1 open but exceeds maximum flow at 2:00:00 hrs.
  
  WARNING: Pump F1 closed because cannot deliver head at 3:00:00 hrs.
  WARNING: Pump P1 closed because cannot deliver head at 3:00:00 hrs.
  
  WARNING: Pump K1 closed because cannot deliver head at 4:00:00 hrs.
  
  WARNING: Pump F1 closed because cannot deliver head at 5:00:00 hrs.
  WARNING: Pump P1 closed because cannot deliver head at 5:00:00 hrs.
  
  WARNING: Pump P1 closed because cannot deliver head at 6:00:00 hrs.
  
  WARNING: Pump F1 closed because cannot deliver head at 7:00:00 hrs.
  WARNING: Pump P1 closed because cannot deliver head at 7:00:00 hrs.
  
  WARNING: Negative pressures at 8:00:00 hrs.
  WARNING: Pump F1 closed because cannot deliver head at 8:00:00 hrs.
  WARNING: Pump K1 open but exceeds maximum flow at 8:00:00 hrs.
  WARNING: Pump P1 open but exceeds maximum flow at 8:00:00 hrs.
  
  WARNING: Pump F1 closed because cannot deliver head at 9:00:00 hrs.
  
  WARNING: Pump F1 closed because cannot deliver head at 10:00:00 hrs.
  
  WARNING: Negative pressures at 10:16:42 hrs.
  WARNING: Pump F1 closed because cannot deliver head at 10:16:42 hrs.
  WARNING: Pump P1 open but exceeds maximum flow at 10:16:42 hrs.
  
  WARNING: Negative pressures at 11:00:00 hrs.
  WARNING: Pump P1 open but exceeds maximum flow at 11:00:00 hrs.
  
  WARNING: Negative pressures at 12:00:00 hrs.
  WARNING: Pump F1 closed because cannot deliver head at 12:00:00 hrs.
  WARNING: Pump K1 open but exceeds maximum flow at 12:00:00 hrs.
  WARNING: Pump P1 open but exceeds maximum flow at 12:00:00 hrs.
  
  WARNING: Negative pressures at 12:58:01 hrs.
  WARNING: Pump F1 closed because cannot deliver head at 12:58:01 hrs.
  WARNING: Pump P1 open but exceeds maximum flow at 12:58:01 hrs.
  
  WARNING: Negative pressures at 13:00:00 hrs.
  WARNING: Pump F1 closed because cannot deliver head at 13:00:00 hrs.
  WARNING: Pump P1 open but exceeds maximum flow at 13:00:00 hrs.
  
  WARNING: Negative pressures at 14:00:00 hrs.
  WARNING: Pump F1 closed because cannot deliver head at 14:00:00 hrs.
  WARNING: Pump P1 open but exceeds maximum flow at 14:00:00 hrs.
  
  WARNING: Negative pressures at 15:00:00 hrs.
  WARNING: Pump F1 closed because cannot deliver head at 15:00:00 hrs.
  WARNING: Pump P1 open but exceeds maximum flow at 15:00:00 hrs.
  
  WARNING: Negative pressures at 16:00:00 hrs.
  WARNING: Pump P1 open but exceeds maximum flow at 16:00:00 hrs.
  
  WARNING: Negative pressures at 17:00:00 hrs.
  WARNING: Pump K1 open but exceeds maximum flow at 17:00:00 hrs.
  WARNING: Pump P1 open but exceeds maximum flow at 17:00:00 hrs.
  
  WARNING: Negative pressures at 18:00:00 hrs.
  WARNING: Pump P1 open but exceeds maximum flow at 18:00:00 hrs.
  
  WARNING: Negative pressures at 19:00:00 hrs.
  WARNING: Pump K1 open but exceeds maximum flow at 19:00:00 hrs.
  WARNING: Pump P1 open but exceeds maximum flow at 19:00:00 hrs.
  
  WARNING: Pump F1 closed because cannot deliver head at 20:00:00 hrs.
  
  WARNING: Negative pressures at 21:00:00 hrs.
  WARNING: Pump F1 closed because cannot deliver head at 21:00:00 hrs.
  WARNING: Pump K1 open but exceeds maximum flow at 21:00:00 hrs.
  WARNING: Pump P1 open but exceeds maximum flow at 21:00:00 hrs.
  
  WARNING: Negative pressures at 22:00:00 hrs.
  WARNING: Pump F1 closed because cannot deliver head at 22:00:00 hrs.
  WARNING: Pump K1 open but exceeds maximum flow at 22:00:00 hrs.
  WARNING: Pump P1 open but exceeds maximum flow at 22:00:00 hrs.
  
  WARNING: Negative pressures at 22:08:52 hrs.
  WARNING: Pump F1 closed because cannot deliver head at 22:08:52 hrs.
  WARNING: Pump P1 open but exceeds maximum flow at 22:08:52 hrs.
  
  WARNING: Pump F1 closed because cannot deliver head at 23:00:00 hrs.
  
  Analysis ended Wed May 24 19:51:05 2023
