  Page 1                                    Mon May 29 20:05:01 2023

  ******************************************************************
  *                           E P A N E T                          *
  *                   Hydraulic and Water Quality                  *
  *                   Analysis for Pipe Networks                   *
  *                         Version 2.00.12                        *
  ******************************************************************
  
  Analysis begun Mon May 29 20:05:01 2023

  WARNING: Pump K1 closed because cannot deliver head at 1:00:00 hrs.
  
  WARNING: Pump K1 closed because cannot deliver head at 1:23:24 hrs.
  
  WARNING: Pump F1 closed because cannot deliver head at 2:00:00 hrs.
  WARNING: Pump K1 closed because cannot deliver head at 2:00:00 hrs.
  
  WARNING: Pump P1 closed because cannot deliver head at 3:00:00 hrs.
  
  WARNING: Maximum trials exceeded at 4:00:00 hrs. System may be unstable.
  WARNING: Pump P1 closed because cannot deliver head at 4:00:00 hrs.
  
  WARNING: Pump P1 closed because cannot deliver head at 4:09:51 hrs.
  
  WARNING: Pump P1 closed because cannot deliver head at 5:00:00 hrs.
  
  WARNING: Pump P1 closed because cannot deliver head at 5:07:04 hrs.
  
  WARNING: Pump K1 closed because cannot deliver head at 6:00:00 hrs.
  
  WARNING: Pump K1 closed because cannot deliver head at 6:14:27 hrs.
  
  WARNING: Pump P1 closed because cannot deliver head at 7:00:00 hrs.
  
  WARNING: Pump P1 closed because cannot deliver head at 8:00:00 hrs.
  
  WARNING: Pump P1 closed because cannot deliver head at 8:39:20 hrs.
  
  WARNING: Pump P1 closed because cannot deliver head at 9:00:00 hrs.
  
  WARNING: Pump P1 closed because cannot deliver head at 9:10:02 hrs.
  
  WARNING: Pump K1 closed because cannot deliver head at 10:00:00 hrs.
  
  WARNING: Pump K1 closed because cannot deliver head at 10:25:20 hrs.
  
  WARNING: Pump K1 closed because cannot deliver head at 11:00:00 hrs.
  
  WARNING: Pump P1 closed because cannot deliver head at 15:00:00 hrs.
  
  WARNING: Pump K1 closed because cannot deliver head at 19:00:00 hrs.
  
  WARNING: Pump K1 closed because cannot deliver head at 19:42:15 hrs.
  
  WARNING: Pump K1 closed because cannot deliver head at 20:00:00 hrs.
  
  WARNING: Pump F1 closed because cannot deliver head at 21:00:00 hrs.
  WARNING: Pump P1 closed because cannot deliver head at 21:00:00 hrs.
  
  WARNING: Pump F1 closed because cannot deliver head at 23:00:00 hrs.
  WARNING: Pump P1 closed because cannot deliver head at 23:00:00 hrs.
  
  WARNING: Pump F1 closed because cannot deliver head at 24:00:00 hrs.
  
  Analysis ended Mon May 29 20:05:01 2023
