  Page 1                                    Thu May 25 15:19:32 2023

  ******************************************************************
  *                           E P A N E T                          *
  *                   Hydraulic and Water Quality                  *
  *                   Analysis for Pipe Networks                   *
  *                         Version 2.00.12                        *
  ******************************************************************
  
  Analysis begun Thu May 25 15:19:32 2023

  WARNING: Negative pressures at 0:00:00 hrs.
  WARNING: Pump F1 closed because cannot deliver head at 0:00:00 hrs.
  WARNING: Pump P1 open but exceeds maximum flow at 0:00:00 hrs.
  
  WARNING: Pump F1 closed because cannot deliver head at 1:00:00 hrs.
  WARNING: Pump P1 closed because cannot deliver head at 1:00:00 hrs.
  
  WARNING: Pump K1 closed because cannot deliver head at 2:00:00 hrs.
  
  WARNING: Pump F1 closed because cannot deliver head at 3:00:00 hrs.
  WARNING: Pump P1 closed because cannot deliver head at 3:00:00 hrs.
  
  WARNING: Pump K1 closed because cannot deliver head at 4:00:00 hrs.
  
  WARNING: Pump F1 closed because cannot deliver head at 5:00:00 hrs.
  
  WARNING: Negative pressures at 6:00:00 hrs.
  WARNING: Pump F1 closed because cannot deliver head at 6:00:00 hrs.
  WARNING: Pump K1 open but exceeds maximum flow at 6:00:00 hrs.
  WARNING: Pump P1 open but exceeds maximum flow at 6:00:00 hrs.
  
  WARNING: Negative pressures at 8:00:00 hrs.
  WARNING: Pump K1 open but exceeds maximum flow at 8:00:00 hrs.
  WARNING: Pump P1 open but exceeds maximum flow at 8:00:00 hrs.
  
  WARNING: Pump F1 closed because cannot deliver head at 9:00:00 hrs.
  
  WARNING: Negative pressures at 10:00:00 hrs.
  WARNING: Pump K1 open but exceeds maximum flow at 10:00:00 hrs.
  WARNING: Pump P1 open but exceeds maximum flow at 10:00:00 hrs.
  
  WARNING: Pump F1 closed because cannot deliver head at 12:00:00 hrs.
  
  WARNING: Pump F1 closed because cannot deliver head at 13:00:00 hrs.
  
  WARNING: Negative pressures at 15:00:00 hrs.
  WARNING: Pump F1 closed because cannot deliver head at 15:00:00 hrs.
  
  WARNING: Pump F1 closed because cannot deliver head at 16:00:00 hrs.
  WARNING: Pump P1 closed because cannot deliver head at 16:00:00 hrs.
  
  WARNING: Pump F1 closed because cannot deliver head at 17:00:00 hrs.
  
  WARNING: Pump F1 closed because cannot deliver head at 18:00:00 hrs.
  
  WARNING: Pump F1 closed because cannot deliver head at 19:00:00 hrs.
  WARNING: Pump P1 closed because cannot deliver head at 19:00:00 hrs.
  
  WARNING: Negative pressures at 19:28:12 hrs.
  WARNING: Pump F1 closed because cannot deliver head at 19:28:12 hrs.
  WARNING: Pump P1 open but exceeds maximum flow at 19:28:12 hrs.
  
  WARNING: Negative pressures at 20:00:00 hrs.
  WARNING: Pump P1 open but exceeds maximum flow at 20:00:00 hrs.
  
  WARNING: Negative pressures at 21:00:00 hrs.
  WARNING: Pump F1 closed because cannot deliver head at 21:00:00 hrs.
  WARNING: Pump K1 open but exceeds maximum flow at 21:00:00 hrs.
  WARNING: Pump P1 open but exceeds maximum flow at 21:00:00 hrs.
  
  WARNING: Pump P1 closed because cannot deliver head at 23:00:00 hrs.
  
  Analysis ended Thu May 25 15:19:32 2023
