  Page 1                                    Mon Aug 28 16:54:15 2023

  ******************************************************************
  *                           E P A N E T                          *
  *                   Hydraulic and Water Quality                  *
  *                   Analysis for Pipe Networks                   *
  *                         Version 2.00.12                        *
  ******************************************************************
  
  Analysis begun Mon Aug 28 16:54:15 2023

  WARNING: Pump P1_SIERADZKA closed because cannot deliver head at 0:00:00 hrs.
  
  WARNING: Pump P1_SIERADZKA closed because cannot deliver head at 2:30:00 hrs.
  
  WARNING: Pump P1_SIERADZKA closed because cannot deliver head at 3:30:00 hrs.
  WARNING: Pump P_P1 closed because cannot deliver head at 3:30:00 hrs.
  
  WARNING: Pump P1_SIERADZKA closed because cannot deliver head at 3:46:41 hrs.
  
  WARNING: Pump P1_SIERADZKA closed because cannot deliver head at 4:30:00 hrs.
  
  WARNING: Pump P1_SIERADZKA closed because cannot deliver head at 9:00:00 hrs.
  
  WARNING: Pump P1_SIERADZKA closed because cannot deliver head at 12:00:00 hrs.
  
  WARNING: Negative pressures at 15:30:00 hrs.
  WARNING: Pump SUW_REDA open but exceeds maximum flow at 15:30:00 hrs.
  
  WARNING: Negative pressures at 15:44:11 hrs.
  WARNING: Pump SUW_REDA open but exceeds maximum flow at 15:44:11 hrs.
  
  WARNING: Negative pressures at 15:54:42 hrs.
  WARNING: Pump SUW_REDA open but exceeds maximum flow at 15:54:42 hrs.
  
  WARNING: Negative pressures at 15:57:04 hrs.
  WARNING: Pump SUW_REDA open but exceeds maximum flow at 15:57:04 hrs.
  
  WARNING: Pump P1_SIERADZKA closed because cannot deliver head at 20:00:00 hrs.
  WARNING: Pump P_P1 closed because cannot deliver head at 20:00:00 hrs.
  
  WARNING: Pump P1_SIERADZKA closed because cannot deliver head at 21:00:00 hrs.
  
  WARNING: Pump P_P1 closed because cannot deliver head at 23:00:00 hrs.
  
  Analysis ended Mon Aug 28 16:54:15 2023
