  Page 1                                    Tue May 30 23:28:23 2023

  ******************************************************************
  *                           E P A N E T                          *
  *                   Hydraulic and Water Quality                  *
  *                   Analysis for Pipe Networks                   *
  *                         Version 2.00.12                        *
  ******************************************************************
  
  Analysis begun Tue May 30 23:28:23 2023

  WARNING: Pump F1 closed because cannot deliver head at 3:00:00 hrs.
  WARNING: Pump K1 closed because cannot deliver head at 3:00:00 hrs.
  
  WARNING: Pump F1 closed because cannot deliver head at 15:35:05 hrs.
  
  WARNING: Pump F1 closed because cannot deliver head at 20:00:00 hrs.
  
  WARNING: Pump F1 closed because cannot deliver head at 24:00:00 hrs.
  
  Analysis ended Tue May 30 23:28:23 2023
