  Page 1                                    Wed May 31 09:53:40 2023

  ******************************************************************
  *                           E P A N E T                          *
  *                   Hydraulic and Water Quality                  *
  *                   Analysis for Pipe Networks                   *
  *                         Version 2.00.12                        *
  ******************************************************************
  
  Analysis begun Wed May 31 09:53:40 2023

  WARNING: Pump F1 closed because cannot deliver head at 0:00:00 hrs.
  WARNING: Pump K1 closed because cannot deliver head at 0:00:00 hrs.
  
  WARNING: Pump F1 closed because cannot deliver head at 1:00:00 hrs.
  WARNING: Pump P1 closed because cannot deliver head at 1:00:00 hrs.
  
  WARNING: Pump F1 closed because cannot deliver head at 2:00:00 hrs.
  
  WARNING: Pump F1 closed because cannot deliver head at 3:00:00 hrs.
  WARNING: Pump P1 closed because cannot deliver head at 3:00:00 hrs.
  
  WARNING: Pump F1 closed because cannot deliver head at 4:00:00 hrs.
  WARNING: Pump P1 closed because cannot deliver head at 4:00:00 hrs.
  
  WARNING: Pump K1 closed because cannot deliver head at 5:00:00 hrs.
  