  Page 1                                    Thu May 25 20:34:45 2023

  ******************************************************************
  *                           E P A N E T                          *
  *                   Hydraulic and Water Quality                  *
  *                   Analysis for Pipe Networks                   *
  *                         Version 2.00.12                        *
  ******************************************************************
  
  Analysis begun Thu May 25 20:34:45 2023

  WARNING: Pump P1 closed because cannot deliver head at 0:00:00 hrs.
  
  WARNING: Negative pressures at 1:00:00 hrs.
  WARNING: Pump K1 closed because cannot deliver head at 1:00:00 hrs.
  WARNING: Pump P1 open but exceeds maximum flow at 1:00:00 hrs.
  
  WARNING: Pump F1 closed because cannot deliver head at 2:00:00 hrs.
  WARNING: Pump K1 closed because cannot deliver head at 2:00:00 hrs.
  
  WARNING: Pump K1 closed because cannot deliver head at 3:00:00 hrs.
  
  WARNING: Pump F1 closed because cannot deliver head at 3:53:36 hrs.
  WARNING: Pump K1 closed because cannot deliver head at 3:53:36 hrs.
  
  WARNING: Pump P1 closed because cannot deliver head at 4:00:00 hrs.
  
  WARNING: Pump F1 closed because cannot deliver head at 5:00:00 hrs.
  WARNING: Pump P1 closed because cannot deliver head at 5:00:00 hrs.
  
  WARNING: Negative pressures at 6:00:00 hrs.
  WARNING: Pump F1 closed because cannot deliver head at 6:00:00 hrs.
  WARNING: Pump K1 open but exceeds maximum flow at 6:00:00 hrs.
  WARNING: Pump P1 open but exceeds maximum flow at 6:00:00 hrs.
  
  WARNING: Negative pressures at 7:00:00 hrs.
  WARNING: Pump F1 closed because cannot deliver head at 7:00:00 hrs.
  WARNING: Pump K1 open but exceeds maximum flow at 7:00:00 hrs.
  WARNING: Pump P1 open but exceeds maximum flow at 7:00:00 hrs.
  
  WARNING: Negative pressures at 8:00:00 hrs.
  WARNING: Pump F1 closed because cannot deliver head at 8:00:00 hrs.
  WARNING: Pump K1 open but exceeds maximum flow at 8:00:00 hrs.
  WARNING: Pump P1 open but exceeds maximum flow at 8:00:00 hrs.
  
  WARNING: Negative pressures at 9:00:00 hrs.
  WARNING: Pump K1 open but exceeds maximum flow at 9:00:00 hrs.
  WARNING: Pump P1 open but exceeds maximum flow at 9:00:00 hrs.
  
  WARNING: Pump F1 closed because cannot deliver head at 10:00:00 hrs.
  
  WARNING: Negative pressures at 11:00:00 hrs.
  WARNING: Pump K1 open but exceeds maximum flow at 11:00:00 hrs.
  WARNING: Pump P1 open but exceeds maximum flow at 11:00:00 hrs.
  
  WARNING: Pump F1 closed because cannot deliver head at 12:00:00 hrs.
  
  WARNING: Pump F1 closed because cannot deliver head at 13:00:00 hrs.
  WARNING: Pump P1 closed because cannot deliver head at 13:00:00 hrs.
  
  WARNING: Negative pressures at 14:00:00 hrs.
  WARNING: Pump F1 closed because cannot deliver head at 14:00:00 hrs.
  WARNING: Pump K1 open but exceeds maximum flow at 14:00:00 hrs.
  WARNING: Pump P1 open but exceeds maximum flow at 14:00:00 hrs.
  
  WARNING: Negative pressures at 15:00:00 hrs.
  WARNING: Pump F1 closed because cannot deliver head at 15:00:00 hrs.
  WARNING: Pump K1 open but exceeds maximum flow at 15:00:00 hrs.
  WARNING: Pump P1 open but exceeds maximum flow at 15:00:00 hrs.
  
  WARNING: Negative pressures at 16:00:00 hrs.
  WARNING: Pump K1 open but exceeds maximum flow at 16:00:00 hrs.
  WARNING: Pump P1 open but exceeds maximum flow at 16:00:00 hrs.
  
  WARNING: Pump F1 closed because cannot deliver head at 17:00:00 hrs.
  
  WARNING: Negative pressures at 17:30:22 hrs.
  WARNING: Pump F1 closed because cannot deliver head at 17:30:22 hrs.
  WARNING: Pump P1 open but exceeds maximum flow at 17:30:22 hrs.
  
  WARNING: Negative pressures at 18:00:00 hrs.
  WARNING: Pump P1 open but exceeds maximum flow at 18:00:00 hrs.
  
  WARNING: Negative pressures at 19:00:00 hrs.
  WARNING: Pump F1 closed because cannot deliver head at 19:00:00 hrs.
  WARNING: Pump P1 open but exceeds maximum flow at 19:00:00 hrs.
  
  WARNING: Negative pressures at 20:00:00 hrs.
  WARNING: Pump F1 closed because cannot deliver head at 20:00:00 hrs.
  WARNING: Pump P1 open but exceeds maximum flow at 20:00:00 hrs.
  
  WARNING: Negative pressures at 21:00:00 hrs.
  WARNING: Pump P1 open but exceeds maximum flow at 21:00:00 hrs.
  
  WARNING: Negative pressures at 22:00:00 hrs.
  WARNING: Pump P1 open but exceeds maximum flow at 22:00:00 hrs.
  
  WARNING: Negative pressures at 23:00:00 hrs.
  WARNING: Pump K1 open but exceeds maximum flow at 23:00:00 hrs.
  WARNING: Pump P1 open but exceeds maximum flow at 23:00:00 hrs.
  
  Analysis ended Thu May 25 20:34:45 2023
